Circuit: * E:\WK\Google Drive - ITBA\ITBA - Me\2020B\Teoria de Circuitos\git\TC-Grupo6\TP1\EJ1\notchG.asc


Date: Wed Aug 19 22:31:22 2020
Total elapsed time: 0.750 seconds.

tnom = 27
temp = 27
method = trap
totiter = 0
traniter = 0
tranpoints = 0
accept = 0
rejected = 0
matrix size = 5
fillins = 2
solver = Normal

