Circuit: * E:\WK\Google Drive - ITBA\ITBA - Me\2020B\Teoria de Circuitos\TP\git\TC-Grupo6\TP1\EJ1\notchG.asc

.OP point found by inspection.

Date: Thu Aug 20 17:42:00 2020
Total elapsed time: 0.125 seconds.

tnom = 27
temp = 27
method = modified trap
totiter = 2244
traniter = 2244
tranpoints = 1123
accept = 1112
rejected = 11
matrix size = 5
fillins = 1
solver = Normal
Matrix Compiler1: 276 bytes object code size  0.1/0.1/[0.1]
Matrix Compiler2: off  [0.1]/0.1/0.1

