Circuit: * D:\Disco HDD\Documentos\Facultad\ITBA\4° año\2° cuatri\22.01 - Teoría de Circuitos\Cursada\Trabajos Prácticos\TC-Grupo6\TP2\Ejercicio3-CircuitoIntegradoresyDerivadores\Simulaciones\Derivador.asc

Number of points per decade reduced from 10000 to 8790.
Direct Newton iteration for .op point succeeded.

Date: Mon Sep 07 15:23:02 2020
Total elapsed time: 3.838 seconds.

tnom = 27
temp = 27
method = trap
totiter = 18
traniter = 0
tranpoints = 0
accept = 0
rejected = 0
matrix size = 525
fillins = 409
solver = Normal
Matrix Compiler1:    2126 opcodes
Matrix Compiler2: 47.98 KB object code size
