Circuit: * D:\Disco HDD\Documentos\Facultad\ITBA\4° año\2° cuatri\22.01 - Teoría de Circuitos\Cursada\Trabajos Prácticos\TC-Grupo6\TP2\Ejercicio3-CircuitoIntegradoresyDerivadores\Simulaciones\Derivador.asc

<<<<<<< HEAD
WARNING: Specified period is not longer than the sum of Trise, Tfall, and Ton for v3.  Increasing period to 0.001
Direct Newton iteration for .op point succeeded.

Date: Wed Sep 02 12:37:15 2020
Total elapsed time: 1.444 seconds.

tnom = 27
temp = 27
method = modified trap
totiter = 83845
traniter = 83822
tranpoints = 39290
accept = 28330
rejected = 10960
matrix size = 29
fillins = 35
solver = Normal
Matrix Compiler1: 2.88 KB object code size  0.7/0.3/[0.2]
Matrix Compiler2: 2.95 KB object code size  0.3/0.4/[0.3]

=======
Number of points per decade reduced from 10000 to 8790.
Direct Newton iteration for .op point succeeded.

Date: Mon Sep 07 15:23:02 2020
Total elapsed time: 3.838 seconds.

tnom = 27
temp = 27
method = trap
totiter = 18
traniter = 0
tranpoints = 0
accept = 0
rejected = 0
matrix size = 525
fillins = 409
solver = Normal
Matrix Compiler1:    2126 opcodes
Matrix Compiler2: 47.98 KB object code size
>>>>>>> c1296a005517be6f1d0c0bf296ec14d617549244
