Circuit: * D:\Disco HDD\Documentos\Facultad\ITBA\4° año\2° cuatri\22.01 - Teoría de Circuitos\Cursada\Trabajos Prácticos\TC-Grupo6\TP2\Ejercicio3-CircuitoIntegradoresyDerivadores\Simulaciones\Integrador.asc

Direct Newton iteration for .op point succeeded.

Date: Sun Aug 30 14:35:54 2020
Total elapsed time: 1.544 seconds.

tnom = 27
temp = 27
method = modified trap
totiter = 220579
traniter = 220556
tranpoints = 110264
accept = 96287
rejected = 13977
matrix size = 29
fillins = 33
solver = Normal
Matrix Compiler1: 2.80 KB object code size  0.6/0.4/[0.2]
Matrix Compiler2: off  [0.3]/0.4/0.4

