Circuit: * E:\WK\Google Drive - ITBA\ITBA - Me\2020B\Teoria de Circuitos\TP\TP5\2. OscFase\oscfase.asc

Direct Newton iteration failed to find .op point.  (Use ".option noopiter" to skip.)
Starting Gmin stepping
Gmin = 10
vernier = 0.5
vernier = 0.25
vernier = 0.125
Gmin = 5.5165
vernier = 0.0625
vernier = 0.03125
vernier = 0.015625
vernier = 0.0078125
Gmin = 5.49501
vernier = 0.00390625
vernier = 0.00195313
vernier = 0.000976563
vernier = 0.000488281
Gmin = 5.50104
Gmin = 0
Gmin stepping succeeded in finding the operating point.


Date: Sat Nov 14 20:33:17 2020
Total elapsed time: 0.480 seconds.

tnom = 27
temp = 27
method = modified trap
totiter = 43362
traniter = 41866
tranpoints = 14164
accept = 9795
rejected = 4369
matrix size = 30
fillins = 47
solver = Normal
Matrix Compiler1: 3.23 KB object code size  1.1/0.8/[0.3]
Matrix Compiler2: 3.30 KB object code size  0.5/0.6/[0.4]

