Circuit: * E:\WK\Google Drive - ITBA\ITBA - Me\2020B\Teoria de Circuitos\TP\git\TC-Grupo6\TP6\2. OscFase\Simulacion\oscfase.asc

Direct Newton iteration failed to find .op point.  (Use ".option noopiter" to skip.)
Starting Gmin stepping
Gmin = 10
vernier = 0.5
vernier = 0.25
vernier = 0.125
Gmin = 5.5165
vernier = 0.0625
vernier = 0.03125
vernier = 0.015625
vernier = 0.0078125
Gmin = 5.49501
vernier = 0.00390625
vernier = 0.00195313
vernier = 0.000976563
vernier = 0.000488281
Gmin = 5.50104
Gmin = 0
Gmin stepping failed

Starting source stepping with srcstepmethod=0
Source Step = 3.0303%
Source Step = 33.3333%
Source Step = 63.6364%
Source Step = 93.9394%
Source stepping succeeded in finding the operating point.


Date: Fri Nov 20 20:06:14 2020
Total elapsed time: 37.753 seconds.

tnom = 27
temp = 27
method = modified trap
totiter = 4401733
traniter = 4400040
tranpoints = 2200021
accept = 2200021
rejected = 0
matrix size = 30
fillins = 47
solver = Normal
Matrix Compiler1: 3.20 KB object code size  0.7/0.4/[0.3]
Matrix Compiler2: 3.31 KB object code size  0.7/0.9/[0.7]

