Circuit: * E:\WK\Google Drive - ITBA\ITBA - Me\2020B\Teoria de Circuitos\TP\git\TC-Grupo6\TP3\EJ1\Simulacion\ej1.asc

Direct Newton iteration for .op point succeeded.

Date: Sat Sep 26 17:26:44 2020
Total elapsed time: 0.962 seconds.

tnom = 27
temp = 27
method = trap
totiter = 3
traniter = 0
tranpoints = 0
accept = 0
rejected = 0
matrix size = 13
fillins = 10
solver = Normal
Matrix Compiler1:      71 opcodes
Matrix Compiler2: 1.47 KB object code size
