Circuit: * E:\WK\Google Drive - ITBA\ITBA - Me\2020B\Teoria de Circuitos\TP\git\TC-Grupo6\TP3\EJ1\Simulacion\ej1-tl082.asc

Early termination of direct N-R iteration.
Direct Newton iteration failed to find .op point.  (Use ".option noopiter" to skip.)
Starting Gmin stepping
Gmin = 10
vernier = 0.5
vernier = 0.25
vernier = 0.125
Gmin = 5.5165
vernier = 0.0625
vernier = 0.03125
vernier = 0.015625
vernier = 0.0078125
Gmin = 5.49501
vernier = 0.00390625
vernier = 0.00195313
vernier = 0.000976563
vernier = 0.000488281
Gmin = 5.50104
Gmin = 0
Gmin stepping failed

Starting source stepping with srcstepmethod=0
Singular matrix:  Check node nc_06
   Iteration No. 1
Singular matrix:  Check node nc_01
   Iteration No. 2
Could not converge to DC with sources off!
Starting source stepping with srcstepmethod=1
Source Step = 3.0303%
Singular matrix:  Check node nc_06
   Iteration No. 3
Source Step = 33.3333%
Singular matrix:  Check node nc_06
   Iteration No. 2
Singular matrix:  Check node nc_06
   Iteration No. 1
Singular matrix:  Check node nc_06
   Iteration No. 1
Singular matrix:  Check node nc_06
   Iteration No. 2
Singular matrix:  Check node nc_06
   Iteration No. 1
Singular matrix:  Check node nc_06
   Iteration No. 1
Singular matrix:  Check node nc_06
   Iteration No. 1
Source stepping failed

Pseudo Transient succeeded in finding the operating point at 327.68 ms.

Date: Fri Oct 09 18:47:43 2020
Total elapsed time: 1.105 seconds.

tnom = 27
temp = 27
method = modified trap
totiter = 2528
traniter = 744
tranpoints = 373
accept = 268
rejected = 105
matrix size = 66
fillins = 216
solver = Normal
Matrix Compiler1: off  4.5/2.0/[0.9]
Matrix Compiler2: 9.52 KB object code size  2.0/1.7/[1.1]

