Circuit: * D:\Disco HDD\Documentos\Facultad\ITBA\4° año\2° cuatri\22.01 - Teoría de Circuitos\Cursada\Trabajos Prácticos\TC-Grupo6\TP3\Ejercicio2-DiseñoDeFiltros\Simulacion\Draft1.asc

WARNING: Node N029 is floating.

Direct Newton iteration for .op point succeeded.

Date: Thu Oct 08 14:13:54 2020
Total elapsed time: 0.155 seconds.

tnom = 27
temp = 27
method = trap
totiter = 39
traniter = 0
tranpoints = 0
accept = 0
rejected = 0
matrix size = 132
fillins = 207
solver = Normal
Matrix Compiler1:     964 opcodes
Matrix Compiler2:    1068 opcodes
