Circuit: * D:\Disco HDD\Documentos\Facultad\ITBA\4° año\2° cuatri\22.01 - Teoría de Circuitos\Cursada\Trabajos Prácticos\TC-Grupo6\TP3\Ejercicio2-DiseñoDeFiltros\Simulacion\Draft1.asc

Direct Newton iteration for .op point succeeded.

Date: Thu Oct 08 01:11:37 2020
Total elapsed time: 0.141 seconds.

tnom = 27
temp = 27
method = trap
totiter = 13
traniter = 0
tranpoints = 0
accept = 0
rejected = 0
matrix size = 140
fillins = 228
solver = Normal
Matrix Compiler1:    1078 opcodes
Matrix Compiler2: 15.12 KB object code size
