Circuit: * E:\WK\Google Drive - ITBA\ITBA - Me\2020B\Teoria de Circuitos\TP\git\TC-Grupo6\TP2\Ejercicio2-MediciondeBias\Simulacion\Draft1.asc

ERROR: Node U1:I0:I21:1:102 is floating and connected to current source G:U1:I0:I21:1:RA
ERROR: Node U1:I0:I19:1:102 is floating and connected to current source G:U1:I0:I19:1:RA
ERROR: Node U1:I0:I19:1:302 is floating and connected to current source G:U1:I0:I19:1:RC
ERROR: Node U2:I0:I21:1:102 is floating and connected to current source G:U2:I0:I21:1:RA
ERROR: Node U2:I0:I19:1:102 is floating and connected to current source G:U2:I0:I19:1:RA
ERROR: Node U2:I0:I19:1:302 is floating and connected to current source G:U2:I0:I19:1:RC

u2:vpd: Missing value, assumed 0V @ DC
u2:i0:vprobe2: Missing value, assumed 0V @ DC
u2:i0:vprobe1: Missing value, assumed 0V @ DC
u1:vpd: Missing value, assumed 0V @ DC
u1:i0:vprobe2: Missing value, assumed 0V @ DC
u1:i0:vprobe1: Missing value, assumed 0V @ DC
Direct Newton iteration failed to find .op point.  (Use ".option noopiter" to skip.)
Starting Gmin stepping
Increasing initial diagonal Gmin to 100
Gmin = 100
Gmin = 10.7374
Gmin = 1.15292
Gmin = 0.123794
Gmin = 0.0132923
Gmin = 0.00142725
vernier = 0.5
vernier = 0.25
vernier = 0.125
vernier = 0.0625
Gmin = 0.00101493
vernier = 0.03125
vernier = 0.015625
vernier = 0.0078125
Gmin = 0.000999238
vernier = 0.00390625
vernier = 0.00195313
vernier = 0.000976563
vernier = 0.000488281
Gmin = 0.000999969
Gmin = 0
Gmin stepping succeeded in finding the operating point.


Date: Fri Sep 25 16:35:32 2020
Total elapsed time: 1.365 seconds.

tnom = 27
temp = 27
method = trap
totiter = 1560
traniter = 0
tranpoints = 0
accept = 0
rejected = 0
matrix size = 353
fillins = 501
solver = Normal
Matrix Compiler1:    1877 opcodes
Matrix Compiler2: 32.24 KB object code size  8.7/10.5/[3.8]

