Circuit: * E:\WK\Google Drive - ITBA\ITBA - Me\2020B\Teoria de Circuitos\TP\git\TC-Grupo6\TP3\EJ1\Simulacion\ej1-tl082.asc

Early termination of direct N-R iteration.
Direct Newton iteration failed to find .op point.  (Use ".option noopiter" to skip.)
Starting Gmin stepping
Gmin = 10
vernier = 0.5
vernier = 0.25
vernier = 0.125
Gmin = 5.5165
vernier = 0.0625
vernier = 0.03125
vernier = 0.015625
vernier = 0.0078125
Gmin = 5.49501
vernier = 0.00390625
vernier = 0.00195313
vernier = 0.000976563
vernier = 0.000488281
Gmin = 5.50104
Gmin = 0
Gmin stepping failed

Starting source stepping with srcstepmethod=0
Singular matrix:  Check node nc_07
   Iteration No. 1
Singular matrix:  Check node nc_02
   Iteration No. 2
Could not converge to DC with sources off!
Starting source stepping with srcstepmethod=1
Source Step = 3.0303%
Singular matrix:  Check node nc_07
   Iteration No. 2
Singular matrix:  Check node nc_07
   Iteration No. 2
Source Step = 33.3333%
Singular matrix:  Check node nc_07
   Iteration No. 1
Singular matrix:  Check node nc_07
   Iteration No. 2
Singular matrix:  Check node nc_07
   Iteration No. 2
Singular matrix:  Check node nc_07
   Iteration No. 1
Singular matrix:  Check node nc_07
   Iteration No. 1
Singular matrix:  Check node nc_07
   Iteration No. 1
Source stepping failed

Pseudo Transient succeeded in finding the operating point at 327.68 ms.

Date: Sat Sep 26 17:37:54 2020
Total elapsed time: 0.821 seconds.

tnom = 27
temp = 27
method = trap
totiter = 1838
traniter = 0
tranpoints = 0
accept = 0
rejected = 0
matrix size = 65
fillins = 184
solver = Normal
Matrix Compiler1: off
Matrix Compiler2: 9.01 KB object code size  2.1/2.3/[0.9]

