Circuit: * D:\Documents\GitHub\TC-TP3EJ3\Simulaciones\Circuito.asc

Early termination of direct N-R iteration.
Direct Newton iteration failed to find .op point.  (Use ".option noopiter" to skip.)
Starting Gmin stepping
Gmin = 10
vernier = 0.5
vernier = 0.25
vernier = 0.125
Gmin = 5.49741
vernier = 0.0625
vernier = 0.03125
vernier = 0.015625
vernier = 0.0078125
Gmin = 5.51716
vernier = 0.00390625
vernier = 0.00195313
vernier = 0.000976563
vernier = 0.000488281
Gmin = 5.50104
Gmin = 0
Gmin stepping succeeded in finding the operating point.

.step run=1
.step run=2
.step run=3
.step run=4
.step run=5
.step run=6
.step run=7
.step run=8
.step run=9
.step run=10
.step run=11
.step run=12
.step run=13
.step run=14
.step run=15

Date: Fri Oct 09 01:13:30 2020
Total elapsed time: 5.507 seconds.

tnom = 27
temp = 27
method = trap
totiter = 1391
traniter = 0
tranpoints = 0
accept = 0
rejected = 0
matrix size = 100
fillins = 691
solver = Normal
Matrix Compiler1:    3464 opcodes
Matrix Compiler2: 20.43 KB object code size  5.5/4.9/[1.8]

