Circuit: * D:\Documents\GitHub\TC-TP3EJ3\LTSpice\Ej3MD.asc

Early termination of direct N-R iteration.
Direct Newton iteration failed to find .op point.  (Use ".option noopiter" to skip.)
Starting Gmin stepping
Gmin = 10
vernier = 0.5
vernier = 0.25
vernier = 0.125
Gmin = 5.49741
vernier = 0.0625
vernier = 0.03125
vernier = 0.015625
vernier = 0.0078125
Gmin = 5.51716
vernier = 0.00390625
vernier = 0.00195313
vernier = 0.000976563
vernier = 0.000488281
Gmin = 5.50104
Gmin = 0
Gmin stepping failed

Starting source stepping with srcstepmethod=0
Source Step = 3.0303%
Source Step = 33.3333%
Source Step = 63.6364%
Source Step = 93.9394%
Source stepping succeeded in finding the operating point.


Date: Wed Oct 14 19:50:32 2020
Total elapsed time: 0.428 seconds.

tnom = 27
temp = 27
method = trap
totiter = 1632
traniter = 0
tranpoints = 0
accept = 0
rejected = 0
matrix size = 102
fillins = 856
solver = Normal
Matrix Compiler1:    5886 opcodes
Matrix Compiler2: 23.79 KB object code size  5.0/3.7/[1.3]

