Circuit: * C:\Users\Paulo\Documents\GitHub\TC\TP3\Ejercicio4-EcualizadorDeFase\Simulacion\Ej4.asc

Direct Newton iteration failed to find .op point.  (Use ".option noopiter" to skip.)
Starting Gmin stepping
Increasing initial diagonal Gmin to 100
Gmin = 100
vernier = 0.5
vernier = 0.25
Gmin = 34.2672
vernier = 0.125
vernier = 0.0625
vernier = 0.03125
vernier = 0.015625
Gmin = 33.0995
vernier = 0.0078125
vernier = 0.00390625
vernier = 0.00195313
Gmin = 32.9705
vernier = 0.000976563
vernier = 0.000488281
Gmin = 0
Gmin stepping failed

Starting source stepping with srcstepmethod=0
Source Step = 3.0303%
Source Step = 33.3333%
Source Step = 63.6364%
Source Step = 93.9394%
Source stepping succeeded in finding the operating point.


Date: Tue Oct 13 20:12:26 2020
Total elapsed time: 0.074 seconds.

tnom = 27
temp = 27
method = trap
totiter = 1759
traniter = 0
tranpoints = 0
accept = 0
rejected = 0
matrix size = 31
fillins = 39
solver = Normal
Matrix Compiler1:     173 opcodes
Matrix Compiler2: off  [0.4]/0.8/1.0

